# generated using pymatgen
data_Ti2Fe(PO5)2
_symmetry_space_group_name_H-M   'P 1'
_cell_length_a   7.45698860
_cell_length_b   7.50955300
_cell_length_c   7.52485384
_cell_angle_alpha   90.00000000
_cell_angle_beta   119.91313381
_cell_angle_gamma   90.00000000
_symmetry_Int_Tables_number   1
_chemical_formula_structural   Ti2Fe(PO5)2
_chemical_formula_sum   'Ti4 Fe2 P4 O20'
_cell_volume   365.24623570
_cell_formula_units_Z   2
loop_
 _symmetry_equiv_pos_site_id
 _symmetry_equiv_pos_as_xyz
  1  'x, y, z'
loop_
 _atom_site_type_symbol
 _atom_site_label
 _atom_site_symmetry_multiplicity
 _atom_site_fract_x
 _atom_site_fract_y
 _atom_site_fract_z
 _atom_site_occupancy
  Ti  Ti0  1  0.26411400  0.27647650  0.79184500  1
  Ti  Ti1  1  0.73588600  0.72352350  0.20815500  1
  Ti  Ti2  1  0.26411400  0.22352350  0.29184500  1
  Ti  Ti3  1  0.73588600  0.77647650  0.70815500  1
  Fe  Fe4  1  0.00000000  0.00000000  0.50000000  1
  Fe  Fe5  1  0.00000000  0.50000000  0.00000000  1
  P  P6  1  0.24787550  0.61808000  0.49784200  1
  P  P7  1  0.24787550  0.88192000  0.99784200  1
  P  P8  1  0.75212450  0.38192000  0.50215800  1
  P  P9  1  0.75212450  0.11808000  0.00215800  1
  O  O10  1  0.44421550  0.73201450  0.57567600  1
  O  O11  1  0.55578450  0.26798550  0.42432400  1
  O  O12  1  0.55578450  0.23201450  0.92432400  1
  O  O13  1  0.44421550  0.76798550  0.07567600  1
  O  O14  1  0.23278050  0.34173000  0.99692200  1
  O  O15  1  0.76721950  0.84173000  0.50307800  1
  O  O16  1  0.23278050  0.15827000  0.49692200  1
  O  O17  1  0.76721950  0.65827000  0.00307800  1
  O  O18  1  0.21950650  0.49397900  0.31986500  1
  O  O19  1  0.21950650  0.00602100  0.81986500  1
  O  O20  1  0.78049350  0.50602100  0.68013500  1
  O  O21  1  0.78049350  0.99397900  0.18013500  1
  O  O22  1  0.06021700  0.75404850  0.91354800  1
  O  O23  1  0.06021700  0.74595150  0.41354800  1
  O  O24  1  0.93978300  0.24595150  0.08645200  1
  O  O25  1  0.93978300  0.25404850  0.58645200  1
  O  O26  1  0.26188550  0.50465100  0.67542500  1
  O  O27  1  0.26188550  0.99534900  0.17542500  1
  O  O28  1  0.73811450  0.49534900  0.32457500  1
  O  O29  1  0.73811450  0.00465100  0.82457500  1
